70
Random points in a box of max length50.1
He      -6.238095559     17.836151290    -22.940019874
He       9.318134491     -8.405984185     13.218063912
He     -17.262218889     -4.077820084     -3.941375075
He      22.587429121     10.684571439      2.356487132
He      10.764858279      2.673306071     -7.986505440
He      13.082455498    -20.702118788    -13.802400256
He      16.844962829     -0.583512448      4.207312205
He      20.481960111     24.387932978     -4.014334158
He      11.568256980    -15.893800181     -6.515460952
He       4.308231637     -0.136299687      5.961284064
He     -12.821562720      9.237339371     -8.926506168
He      12.060554778    -24.844502006     -7.777295366
He      -7.175124763     10.615193585    -23.061252226
He      13.320385464      1.909856539     18.358242430
He       1.573651521     21.910733556    -16.530637877
He     -14.789796843    -20.542231333     -5.482761821
He     -18.573399940    -21.114423294      4.965534493
He      13.859319584    -21.963661253    -19.140400536
He      15.427683796    -23.285717270    -12.472084354
He     -15.526402071     11.238140636     -4.251391334
He      19.163004221     -2.950818292      9.814399558
He       7.362790030     22.871047839     -9.925289174
He       7.115515202     14.826783603     -8.209610654
He     -22.623289896     -3.354600930    -12.581552473
He     -16.257885821     20.148733680      6.316732713
He      10.653564639      1.514609135      2.089679080
He       9.821358972    -11.968832471    -20.339007545
He      -9.559043899      7.082484196     -2.122656602
He       1.356007090     23.630279881     -0.592112120
He      -0.198733228      6.531731204     19.457101335
He      21.245189775    -19.178161522      0.863310863
He     -24.961318996     -5.011656827      0.756654827
He       5.420566124      3.045480217    -22.033134016
He      -9.740341388    -18.591056456     -9.292377273
He      22.069583145     -4.768441200     19.981732300
He      23.025145652     -3.398651203     19.409321548
He      -9.909598699      4.934171641     14.385113774
He      22.550436101      9.897991894      3.743902390
He      20.187196033     21.358253602     -7.465906251
He       4.777596027      3.586152062    -21.844555814
He     -13.361624710    -19.054181316     -8.694114359
He       0.104114871    -20.132580657     14.686558630
He      -3.467308593     22.282015694    -17.692262427
He      -2.749412489     -5.172206976      4.610339218
He      10.088697921    -24.150025380     -4.693158602
He      21.833168307    -20.665567152    -20.710376926
He     -18.633955312     18.840049170    -11.843896025
He     -15.089143270     11.244399681    -16.138064646
He      12.104524742     21.094791675      2.290249064
He      -8.379367736     14.998067417      9.626049719
He      22.684537431    -17.276894189    -20.898321895
He      18.649047609     -4.366116228    -23.553770977
He      -7.816926235     15.635500451      8.240084906
He     -12.719967711     24.166732576     22.019421158
He      20.117397795      2.442355779      2.629590776
He     -22.422691270     -3.884643503     23.128464151
He     -20.024312646    -24.168896624    -14.505737581
He       1.209307028     11.620981530    -20.977028819
He      -3.337704612    -17.433954292      6.065204710
He      10.018883104     -7.144417502     -0.071071096
He      17.375729219    -16.310132912     -9.461825569
He       1.789972243     24.212061980     18.654708817
He      18.573383541     -7.127979498     19.792688562
He       2.574654498      7.394528777    -24.444158217
He       7.587289902    -20.746154769    -24.109798094
He     -23.008851797     -9.022294838     -2.478477878
He      14.445669665     10.289017083    -21.540863046
He       5.291164949     17.331350068    -12.054779460
He      22.080854903    -23.995867970     12.154569284
He      14.556481799    -11.513219255      3.847110190
