12
Graphene C6H6 in xyz format
C    -0.710000000    1.229756073    0.000000000
C    0.710000000    1.229756073    0.000000000
C    1.420000000    0.000000000    0.000000000
C    0.710000000    -1.229756073    0.000000000
C    -0.710000000    -1.229756073    0.000000000
C    -1.420000000    0.000000000    0.000000000
H    1.250000000    2.165063509    0.000000000
H    -1.250000000    -2.165063509    0.000000000
H    -1.250000000    2.165063509    0.000000000
H    1.250000000    -2.165063509    0.000000000
H    2.500000000    0.000000000    0.000000000
H    -2.500000000    0.000000000    0.000000000
